@<TRIPOS>MOLECULE
Cpptraj
  147   154     1     0     0
SMALL
No Charge or Current Charge


@<TRIPOS>ATOM
      1 C1          16.6430    14.6230    33.9450 C.3        1 MGO       0.304529
      2 H1          15.6510    14.1480    33.8160 H          1 MGO       0.090782
      3 O1          16.5170    16.0550    34.2480 O.3        1 MGO      -0.453070
      4 C2          17.3500    13.9360    35.1100 C.3        1 MGO       0.092199
      5 H2          17.4010    12.8590    34.9250 H          1 MGO       0.102926
      6 O2          16.6290    14.1820    36.3290 O.3        1 MGO      -0.586639
      7 HO2         16.0280    14.9370    36.2130 H          1 MGO       0.425065
      8 C3          18.7440    14.4970    35.2990 C.3        1 MGO       0.093211
      9 H3          18.6780    15.5490    35.5940 H          1 MGO       0.064468
     10 O3          19.3660    13.7160    36.3320 O.3        1 MGO      -0.592567
     11 HO3         18.6750    13.5280    36.9820 H          1 MGO       0.421017
     12 C4          19.5430    14.3630    34.0120 C.3        1 MGO       0.127621
     13 H4          19.7010    13.3020    33.8000 H          1 MGO       0.080661
     14 C5          18.8130    15.0200    32.8310 C.3        1 MGO       0.104343
     15 H5          18.7080    16.0850    33.0530 H          1 MGO       0.068516
     16 O5          17.4490    14.4390    32.7230 O.3        1 MGO      -0.427383
     17 C6          19.5010    14.9360    31.4610 C.3        1 MGO       0.141081
     18 H61         20.1630    15.7950    31.3290 H          1 MGO       0.057384
     19 H62         18.7540    14.9590    30.6640 H          1 MGO       0.057384
     20 O6          20.2800    13.7380    31.3550 O.3        1 MGO      -0.593555
     21 HO6         21.1710    13.9280    31.6770 H          1 MGO       0.422027
     22 C1          13.5680    19.0200    33.9460 C.3        2 MGO       0.304529
     23 H1          12.5770    19.4990    33.8180 H          2 MGO       0.090782
     24 O1          14.6090    20.0110    34.2490 O.3        2 MGO      -0.453070
     25 C2          13.4710    18.0380    35.1110 C.3        2 MGO       0.092199
     26 H2          12.6610    17.3270    34.9260 H          2 MGO       0.102926
     27 O2          13.2160    18.7550    36.3290 O.3        2 MGO      -0.586639
     28 HO2         13.4310    19.6950    36.2140 H          2 MGO       0.425065
     29 C3          14.7810    17.2990    35.2980 C.3        2 MGO       0.093211
     30 H3          15.5620    18.0050    35.5940 H          2 MGO       0.064468
     31 O3          14.5570    16.3260    36.3310 O.3        2 MGO      -0.592567
     32 HO3         13.9790    16.7480    36.9830 H          2 MGO       0.421017
     33 C4          15.1730    16.5900    34.0130 C.3        2 MGO       0.127621
     34 H4          14.4420    15.8060    33.8000 H          2 MGO       0.080661
     35 C5          15.2310    17.5710    32.8310 C.3        2 MGO       0.104343
     36 H5          15.9980    18.3160    33.0540 H          2 MGO       0.068516
     37 O5          13.9260    18.2760    32.7230 O.3        2 MGO      -0.427383
     38 C6          15.5940    16.9810    31.4610 C.3        2 MGO       0.141081
     39 H61         16.6780    16.9990    31.3280 H          2 MGO       0.057384
     40 H62         15.1460    17.5790    30.6640 H          2 MGO       0.057384
     41 O6          15.1420    15.6250    31.3550 O.3        2 MGO      -0.593555
     42 HO6         15.8470    15.0470    31.6770 H          2 MGO       0.422027
     43 C1          15.0880    24.1660    33.9470 C.3        3 MGO       0.304529
     44 H1          14.8460    25.2390    33.8180 H          3 MGO       0.090782
     45 O1          16.5120    23.9690    34.2490 O.3        3 MGO      -0.453070
     46 C2          14.2620    23.6290    35.1110 C.3        3 MGO       0.092199
     47 H2          13.2000    23.8180    34.9270 H          3 MGO       0.102926
     48 O2          14.6630    24.2760    36.3300 O.3        3 MGO      -0.586639
     49 HO2         15.5310    24.6940    36.2140 H          3 MGO       0.425065
     50 C3          14.5000    22.1440    35.2990 C.3        3 MGO       0.093211
     51 H3          15.5390    21.9740    35.5940 H          3 MGO       0.064468
     52 O3          13.6000    21.7120    36.3320 O.3        3 MGO      -0.592567
     53 HO3         13.5700    22.4280    36.9840 H          3 MGO       0.421017
     54 C4          14.1890    21.3960    34.0130 C.3        3 MGO       0.127621
     55 H4          13.1200    21.4790    33.8020 H          3 MGO       0.080661
     56 C5          14.9920    21.9620    32.8320 C.3        3 MGO       0.104343
     57 H5          16.0530    21.8270    33.0540 H          3 MGO       0.068516
     58 O5          14.7290    23.4220    32.7240 O.3        3 MGO      -0.427383
     59 C6          14.7570    21.3100    31.4620 C.3        3 MGO       0.141081
     60 H61         15.4460    20.4730    31.3290 H          3 MGO       0.057384
     61 H62         14.9440    22.0340    30.6640 H          3 MGO       0.057384
     62 O6          13.4140    20.8170    31.3560 O.3        3 MGO      -0.593555
     63 HO6         13.4020    19.9060    31.6770 H          3 MGO       0.422027
     64 C1          20.0600    26.1850    33.9450 C.3        4 MGO       0.304529
     65 H1          20.7470    27.0440    33.8170 H          4 MGO       0.090782
     66 O1          20.7930    24.9490    34.2480 O.3        4 MGO      -0.453070
     67 C2          19.1240    26.4970    35.1100 C.3        4 MGO       0.092199
     68 H2          18.6110    27.4450    34.9250 H          4 MGO       0.102926
     69 O2          19.8810    26.5870    36.3290 O.3        4 MGO      -0.586639
     70 HO2         20.7500    26.1690    36.2130 H          4 MGO       0.425065
     71 C3          18.1130    25.3860    35.2980 C.3        4 MGO       0.093211
     72 H3          18.6270    24.4670    35.5940 H          4 MGO       0.064468
     73 O3          17.2130    25.8200    36.3310 O.3        4 MGO      -0.592567
     74 HO3         17.7540    26.2890    36.9820 H          4 MGO       0.421017
     75 C4          17.3330    25.1600    34.0130 C.3        4 MGO       0.127621
     76 H4          16.7320    26.0480    33.8010 H          4 MGO       0.080661
     77 C5          18.2760    24.8850    32.8320 C.3        4 MGO       0.104343
     78 H5          18.8320    23.9720    33.0540 H          4 MGO       0.068516
     79 O5          19.2540    26.0010    32.7230 O.3        4 MGO      -0.427383
     80 C6          17.6200    24.6630    31.4610 C.3        4 MGO       0.141081
     81 H61         17.3950    23.6010    31.3290 H          4 MGO       0.057384
     82 H62         18.3030    24.9660    30.6640 H          4 MGO       0.057384
     83 O6          16.3980    25.4040    31.3560 O.3        4 MGO      -0.593555
     84 HO6         15.6770    24.8470    31.6780 H          4 MGO       0.422027
     85 C1          24.7380    23.5580    33.9450 C.3        5 MGO       0.304529
     86 H1          25.8380    23.5560    33.8150 H          5 MGO       0.090782
     87 O1          24.2290    22.2140    34.2480 O.3        5 MGO      -0.453070
     88 C2          24.3990    24.4840    35.1090 C.3        5 MGO       0.092199
     89 H2          24.8200    25.4760    34.9240 H          5 MGO       0.102926
     90 O2          24.9400    23.9490    36.3280 O.3        5 MGO      -0.586639
     91 HO2         25.1550    23.0090    36.2130 H          5 MGO       0.425065
     92 C3          22.8990    24.5820    35.2980 C.3        5 MGO       0.093211
     93 H3          22.5010    23.6070    35.5930 H          5 MGO       0.064468
     94 O3          22.6770    25.5560    36.3310 O.3        5 MGO      -0.592567
     95 HO3         23.3810    25.4260    36.9820 H          5 MGO       0.421017
     96 C4          22.2370    25.0510    34.0120 C.3        5 MGO       0.127621
     97 H4          22.5560    26.0740    33.7990 H          5 MGO       0.080661
     98 C5          22.6090    24.1410    32.8310 C.3        5 MGO       0.104343
     99 H5          22.2430    23.1370    33.0540 H          5 MGO       0.068516
    100 O5          24.0920    24.0730    32.7220 O.3        5 MGO      -0.427383
    101 C6          22.0260    24.5150    31.4600 C.3        5 MGO       0.141081
    102 H61         21.0570    24.0290    31.3280 H          5 MGO       0.057384
    103 H62         22.6890    24.1700    30.6630 H          5 MGO       0.057384
    104 O6          21.8450    25.9330    31.3540 O.3        5 MGO      -0.593555
    105 HO6         20.9590    26.1480    31.6770 H          5 MGO       0.422027
    106 C1          25.6000    18.2620    33.9460 C.3        6 MGO       0.304529
    107 H1          26.2850    17.4000    33.8180 H          6 MGO       0.090782
    108 O1          24.2320    17.8210    34.2490 O.3        6 MGO      -0.453070
    109 C2          26.1130    19.1050    35.1110 C.3        6 MGO       0.092199
    110 H2          27.1510    19.3940    34.9260 H          6 MGO       0.102926
    111 O2          26.0320    18.3480    36.3290 O.3        6 MGO      -0.586639
    112 HO2         25.4310    17.5940    36.2140 H          6 MGO       0.425065
    113 C3          25.2540    20.3380    35.2990 C.3        6 MGO       0.093211
    114 H3          24.2440    20.0400    35.5940 H          6 MGO       0.064468
    115 O3          25.8770    21.1190    36.3320 O.3        6 MGO      -0.592567
    116 HO3         26.2150    20.4870    36.9830 H          6 MGO       0.421017
    117 C4          25.2090    21.1470    34.0120 C.3        6 MGO       0.127621
    118 H4          26.2070    21.5370    33.8000 H          6 MGO       0.080661
    119 C5          24.7300    20.2890    32.8320 C.3        6 MGO       0.104343
    120 H5          23.7170    19.9500    33.0530 H          6 MGO       0.068516
    121 O5          25.6010    19.0870    32.7230 O.3        6 MGO      -0.427383
    122 C6          24.6600    20.9780    31.4610 C.3        6 MGO       0.141081
    123 H61         23.6760    21.4320    31.3290 H          6 MGO       0.057384
    124 H62         24.8040    20.2440    30.6640 H          6 MGO       0.057384
    125 O6          25.6550    22.0040    31.3550 O.3        6 MGO      -0.593555
    126 HO6         25.2710    22.8310    31.6760 H          6 MGO       0.422027
    127 C1          21.9970    14.2850    33.9460 C.3        7 MGO       0.304529
    128 H1          21.7500    13.2130    33.8180 H          7 MGO       0.090782
    129 O1          20.8010    15.0810    34.2490 O.3        7 MGO      -0.453070
    130 C2          22.9760    14.4100    35.1110 C.3        7 MGO       0.092199
    131 H2          23.8490    13.7790    34.9260 H          7 MGO       0.102926
    132 O2          22.3330    14.0020    36.3290 O.3        7 MGO      -0.586639
    133 HO2         21.3690    14.0010    36.2140 H          7 MGO       0.425065
    134 C3          23.4050    15.8500    35.2990 C.3        7 MGO       0.093211
    135 H3          22.5430    16.4550    35.5940 H          7 MGO       0.064468
    136 O3          24.4030    15.8500    36.3330 O.3        7 MGO      -0.592567
    137 HO3         24.1200    15.1930    36.9830 H          7 MGO       0.421017
    138 C4          24.0100    16.3910    34.0130 C.3        7 MGO       0.127621
    139 H4          24.9370    15.8530    33.8010 H          7 MGO       0.080661
    140 C5          23.0400    16.2300    32.8310 C.3        7 MGO       0.104343
    141 H5          22.1430    16.8120    33.0540 H          7 MGO       0.068516
    142 O5          22.6440    14.8010    32.7240 O.3        7 MGO      -0.427383
    143 C6          23.5350    16.7150    31.4610 C.3        7 MGO       0.141081
    144 H61         23.2770    17.7680    31.3280 H          7 MGO       0.057384
    145 H62         23.0520    16.1450    30.6640 H          7 MGO       0.057384
    146 O6          24.9590    16.5760    31.3560 O.3        7 MGO      -0.593555
    147 HO6         25.3650    17.3910    31.6780 H          7 MGO       0.422027
@<TRIPOS>BOND
     1    17    20 1   
     2    14    16 1   
     3    14    17 1   
     4    12    14 1   
     5    12   129 1   
     6     8    10 1   
     7     8    12 1   
     8     4     6 1   
     9     4     8 1   
    10     3    33 1   
    11     1     3 1   
    12     1     4 1   
    13     1    16 1   
    14    38    41 1   
    15    35    37 1   
    16    35    38 1   
    17    33    35 1   
    18    29    31 1   
    19    29    33 1   
    20    25    27 1   
    21    25    29 1   
    22    24    54 1   
    23    22    24 1   
    24    22    25 1   
    25    22    37 1   
    26    59    62 1   
    27    56    58 1   
    28    56    59 1   
    29    54    56 1   
    30    50    52 1   
    31    50    54 1   
    32    46    48 1   
    33    46    50 1   
    34    45    75 1   
    35    43    45 1   
    36    43    46 1   
    37    43    58 1   
    38    80    83 1   
    39    77    79 1   
    40    77    80 1   
    41    75    77 1   
    42    71    73 1   
    43    71    75 1   
    44    67    69 1   
    45    67    71 1   
    46    66    96 1   
    47    64    66 1   
    48    64    67 1   
    49    64    79 1   
    50   101   104 1   
    51    98   100 1   
    52    98   101 1   
    53    96    98 1   
    54    92    94 1   
    55    92    96 1   
    56    88    90 1   
    57    88    92 1   
    58    87   117 1   
    59    85    87 1   
    60    85    88 1   
    61    85   100 1   
    62   122   125 1   
    63   119   121 1   
    64   119   122 1   
    65   117   119 1   
    66   113   115 1   
    67   113   117 1   
    68   109   111 1   
    69   109   113 1   
    70   108   138 1   
    71   106   108 1   
    72   106   109 1   
    73   106   121 1   
    74   143   146 1   
    75   140   142 1   
    76   140   143 1   
    77   138   140 1   
    78   134   136 1   
    79   134   138 1   
    80   130   132 1   
    81   130   134 1   
    82   127   129 1   
    83   127   130 1   
    84   127   142 1   
    85    20    21 1   
    86    17    18 1   
    87    17    19 1   
    88    14    15 1   
    89    12    13 1   
    90    10    11 1   
    91     8     9 1   
    92     6     7 1   
    93     4     5 1   
    94     1     2 1   
    95    41    42 1   
    96    38    39 1   
    97    38    40 1   
    98    35    36 1   
    99    33    34 1   
   100    31    32 1   
   101    29    30 1   
   102    27    28 1   
   103    25    26 1   
   104    22    23 1   
   105    62    63 1   
   106    59    60 1   
   107    59    61 1   
   108    56    57 1   
   109    54    55 1   
   110    52    53 1   
   111    50    51 1   
   112    48    49 1   
   113    46    47 1   
   114    43    44 1   
   115    83    84 1   
   116    80    81 1   
   117    80    82 1   
   118    77    78 1   
   119    75    76 1   
   120    73    74 1   
   121    71    72 1   
   122    69    70 1   
   123    67    68 1   
   124    64    65 1   
   125   104   105 1   
   126   101   102 1   
   127   101   103 1   
   128    98    99 1   
   129    96    97 1   
   130    94    95 1   
   131    92    93 1   
   132    90    91 1   
   133    88    89 1   
   134    85    86 1   
   135   125   126 1   
   136   122   123 1   
   137   122   124 1   
   138   119   120 1   
   139   117   118 1   
   140   115   116 1   
   141   113   114 1   
   142   111   112 1   
   143   109   110 1   
   144   106   107 1   
   145   146   147 1   
   146   143   144 1   
   147   143   145 1   
   148   140   141 1   
   149   138   139 1   
   150   136   137 1   
   151   134   135 1   
   152   132   133 1   
   153   130   131 1   
   154   127   128 1   
@<TRIPOS>SUBSTRUCTURE
     1 MGO         1 TEMP              0 ****  ****    0 ROOT
